LAMMPS (22 Dec 2022)
#
#  2D model of liquid crystals.
#
#  Liquid crystals are modelled as rods of 5 beads.
#
#

variable nmol  equal 300

#Simulations box of 40 x 40
variable lbox    equal 40

#temperature in reduced units
variable temp equal 0.2

#number of integration steps
variable steps equal 20000

variable basename string "liquidcrystal"

#seeds for random numbers
variable RND1 equal 3523524
variable RND2 equal 4634331
variable RND3 equal 5734574
variable RND4 equal 2342356
variable RND5 equal 1352352

#set up basic simulation stuff
units		lj
dimension       2
boundary        p p p

neighbor 0.5 bin
neigh_modify every 1 delay 0 check yes

#Generate box and system
variable lhalf equal 40/2
region box block -20 20 -20 20 -0.5 0.5

molecule        liquidcrystal lc.mol
Read molecule template liquidcrystal:
  1 molecules
  0 fragments
  5 atoms with max type 1
  4 bonds with max type 1
  3 angles with max type 1
  0 dihedrals with max type 0
  0 impropers with max type 0
atom_style	template liquidcrystal

#4 is number of types of atoms in the simulation
create_box 4 box bond/types 1  angle/types 1
Created orthogonal box = (-20 -20 -0.5) to (20 20 0.5)

#add liquid crystals
create_atoms 0 random 300  5734574 box mol liquidcrystal  5734574
Created 1500 atoms

#visualize
group vis type 1     #  all
1500 atoms in group vis

#all particles has mass 1
mass   *        1

# soft repulsive interaction between all beads.

##pair_style         soft 1.0
##pair_coeff         * * 10 1.0

#lj/cut/soft args = n alpha_lj cutoff
#  n, alpha_LJ = parameters of soft-core potential
#  cutoff = global cutoff for Lennard-Jones interactions (distance units)

pair_style lj/cut/soft 2.0 0.2 2.0

#epsilon sigma  lambda
pair_coeff * * 1.0 1.0  0.2

#bonds are spring
bond_style      harmonic
bond_coeff      * 100 0.75

angle_style     harmonic
angle_coeff     * 50 180

neigh_modify exclude  molecule/intra all

#minimize energy of initial state
minimize 1e-3 1e-3 1000 1000
Generated 0 of 6 mixed pair_coeff terms from geometric mixing rule
Step          Temp          E_pair         E_mol          TotEng         Press
0   0              4.8502512      2.9753977e-15  4.8502512      4.3321053
Loop time of 0.0321537 on 8 procs for 132 steps with 1500 atoms

Minimization stats:
  Stopping criterion = energy tolerance
  Energy initial, next-to-last, final =
  Force two-norm initial, final = 905.72206 30.677661
  Force max component initial, final = 76.39994 5.4008743
  Final line search alpha, max atom move = 0.0057131996 0.030856273
  Iterations, force evaluations = 132 237

reset_timestep 0

#make pictures
shell "mkdir img"
dump        img vis  image  500 img/liquidcrystal_*.jpg    type type  bond type none adiam 0.5 zoom 1.7
dump_modify img acolor 1 red
dump_modify img adiam  1 0.05
dump_modify img backcolor white  boxcolor black
dump_modify img pad 6

#save video
dump        video vis  movie  20 liquidcrystal.avi    type type  bond type none adiam 1.0 zoom 1.7
dump_modify video acolor 1 red
dump_modify video adiam  1 0.05
dump_modify video backcolor white  boxcolor black

thermo    100
thermo_style custom  step  temp  epair ebond   density

#fixes for at k√∏re simulation
fix integrator all nve
fix langevin all langevin 0.2 0.2 0.5 1352352
fix 2d         all enforce2d

# timestep
timestep	0.01

run 20000
Generated 0 of 6 mixed pair_coeff terms from geometric mixing rule
Step          Temp          E_pair         E_bond        Density
0   0              0.57212225     0.049783584    0.9375
Averages over the last 101 of 201 rows, steps 10000 to 20000:
Temp E_pair E_bond Density
0.200262 0.530498 0.127357 0.9375
Loop time of 24.8249 on 8 procs for 20000 steps with 1500 atoms
